&NUMERICS
time_flux = 1  ! length of flux corrections run [yrs]
time_ctrl = 1  ! length of control run [yrs]
time_scnr = 1 ! length of scenario run [yrs]
/
&PHYSICS
 log_exp = 10 ! complete GREB model; 2xCO2 forcing
/
